Circuit: * Z:\home\salvoroni\verilog\Lab4\encoder.asc

Warning: Multiple definitions of model "aons66402" Type: Vdmos1
Direct Newton iteration failed to find .op point.  (Use ".option noopiter" to skip.)
Starting Gmin stepping
Gmin = 10
Gmin = 1.07374
Gmin = 0.115292
Gmin = 0.0123794
Gmin = 0.00132923
Gmin = 0.000142725
Gmin = 1.5325e-005
Gmin = 1.6455e-006
Gmin = 1.76685e-007
Gmin = 1.89714e-008
Gmin = 2.03704e-009
Gmin = 2.18725e-010
Gmin = 2.34854e-011
Gmin = 2.52173e-012
Gmin = 2.70769e-013
Gmin = 0
Gmin stepping succeeded in finding the operating point.


Date: Wed May 05 21:52:59 2021
Total elapsed time: 6.849 seconds.

tnom = 27
temp = 27
method = modified trap
totiter = 17446
traniter = 17005
tranpoints = 8093
accept = 8069
rejected = 24
matrix size = 443
fillins = 28
solver = Normal
Thread vector: 322.1/177.1[4] 37.1/22.2[4] 11.9/9.0[3] 6.4/236.2[1]  2592/500
Matrix Compiler1: 70.07 KB object code size  33.4/16.8/[10.6]
Matrix Compiler2: 56.94 KB object code size  24.7/15.4/[6.5]

